#set profiler=1;
#set iteration_limit=50;
#set minimum_timestep=300;
#set relax_naming_rules=1;

clock {
	timezone PST+8PDT;
	starttime '2017-07-18 00:00:00';
	stoptime '2017-07-18 23:59:59';
}

module powerflow {
	solver_method NR;
	default_maximum_voltage_error 1e-6;
	NR_superLU_procs 1;
	line_capacitance true;
};

module residential;
module generators;
module tape;
module assert;
module connection;
module climate;

object helics_msg {
  name WSU_Campus_helics;
  parent TUR111;
  configure gld_config.json;
}

object meter {
	name swing_bus;
	phases ABCN;
	nominal_voltage 7970.00;
	voltage_A 7970.00+0d;
	voltage_B 7970.00-120.0d;
	voltage_C 7970.00+120.0d;
	bustype SWING;
}

object switch {
	name Switch_TUR115_swing;
	phases ABCN;
	from swing_bus;
	to TUR115;
	phase_A_state CLOSED;
	phase_B_state CLOSED;
	phase_C_state CLOSED;
	operating_mode INDIVIDUAL;
}

object switch {
	name Switch_SPU125_swing;
	phases ABCN;
	from swing_bus;
	to SPU125;
	phase_A_state CLOSED;
	phase_B_state CLOSED;
	phase_C_state CLOSED;
	operating_mode INDIVIDUAL;
}

object switch {
	name Switch_SPU122_swing;
	phases ABCN;
	from swing_bus;
	to SPU122;
	phase_A_state CLOSED;
	phase_B_state CLOSED;
	phase_C_state CLOSED;
	operating_mode INDIVIDUAL;
}

object switch {
	name Switch_SPU124_swing;
	phases ABCN;
	from swing_bus;
	to SPU124;
	phase_A_state CLOSED;
	phase_B_state CLOSED;
	phase_C_state CLOSED;
	operating_mode INDIVIDUAL;
}

object switch {
	name Switch_TUR117_swing;
	phases ABCN;
	from swing_bus;
	to TUR117;
	phase_A_state CLOSED;
	phase_B_state CLOSED;
	phase_C_state CLOSED;
	operating_mode INDIVIDUAL;
}

object switch {
	name Switch_TUR111_swing;
	phases ABCN;
	from swing_bus;
	to TUR111;
	phase_A_state CLOSED;
	phase_B_state CLOSED;
	phase_C_state CLOSED;
	operating_mode INDIVIDUAL;
}

object switch {
	name Switch_TVW131_swing;
	phases ABCN;
	from swing_bus;
	to TVW131;
	phase_A_state CLOSED;
	phase_B_state CLOSED;
	phase_C_state CLOSED;
	operating_mode INDIVIDUAL;
}

object recloser {
	name recloser_Breaker Recloser_TUR115_1;
	phases "ABCN";
	from 500-2822450;
	to Breaker_392-96374;
	retry_time 1s;
	max_number_of_tries 3;
}

object recloser {
	name recloser_Breaker Recloser_TUR115_2;
	phases "ABCN";
	from 500-2822436;
	to Breaker_392-96694;
	retry_time 1s;
	max_number_of_tries 3;
}

object recloser {
	name recloser_Breaker Recloser_TUR115_3;
	phases "ABC";
	from 406-1262796;
	to Breaker_392-106295;
	retry_time 1s;
	max_number_of_tries 3;
}

object recloser {
	name recloser_392-93179;
	phases "ABCN";
	from TUR115;
	to Breaker_416-74596;
	retry_time 1s;
	max_number_of_tries 3;
}

object recloser {
	name recloser_Breaker Recloser_SPU125_1;
	phases "ABCN";
	from 403-470566;
	to Breaker_392-89014;
	retry_time 1s;
	max_number_of_tries 3;
}

object recloser {
	name recloser_Breaker Recloser_SPU125_2;
	phases "ABCN";
	from 500-712882;
	to Breaker_392-89655;
	retry_time 1s;
	max_number_of_tries 3;
	status OPEN;
}

object recloser {
	name recloser_Breaker Recloser_SPU125_3;
	phases "ABC";
	from 406-905990;
	to Breaker_392-106294;
	retry_time 1s;
	max_number_of_tries 3;
}

object recloser {
	name recloser_Breaker Recloser_SPU125_4;
	phases "ABC";
	from 392-106294;
	to Breaker_392-106314;
	retry_time 1s;
	max_number_of_tries 3;
	status OPEN;
}

object recloser {
	name recloser_392-31703;
	phases "ABCN";
	from SPU125;
	to Breaker_416-32980;
	retry_time 1s;
	max_number_of_tries 3;
}

object recloser {
	name recloser_392-15406;
	phases "ABCN";
	from SPU122;
	to Breaker_416-14448;
	retry_time 1s;
	max_number_of_tries 3;
}

object recloser {
	name recloser_392-30742;
	phases "ABCN";
	from SPU124;
	to Breaker_416-32020;
	retry_time 1s;
	max_number_of_tries 3;
}

object recloser {
	name recloser_Breaker Recloser_TUR117_1;
	phases "ABCN";
	from 393-70114;
	to Breaker_392-82614;
	retry_time 1s;
	max_number_of_tries 3;
}

object recloser {
	name recloser_Breaker Recloser_TUR117_2;
	phases "ABCN";
	from 500-2843159;
	to Breaker_392-88054;
	retry_time 1s;
	max_number_of_tries 3;
}

object recloser {
	name recloser_392-93181;
	phases "ABCN";
	from TUR117;
	to Breaker_416-69801;
	retry_time 1s;
	max_number_of_tries 3;
}

object recloser {
	name recloser_Breaker Recloser_TUR117_3;
	phases "ABCN";
	from 500-72681;
	to Breaker_392-93494;
	retry_time 1s;
	max_number_of_tries 3;
}

object recloser {
	name recloser_Breaker Recloser;
	phases "ABCN";
	from 403-474406;
	to Breaker_392-91895;
	retry_time 1s;
	max_number_of_tries 3;
}

object recloser {
	name recloser_392-93176;
	phases "ABCN";
	from TUR111;
	to Breaker_416-69802;
	retry_time 1s;
	max_number_of_tries 3;
}

object recloser {
	name recloser_392-58264;
	phases "ABCN";
	from TVW131;
	to Breaker_416-52180;
	retry_time 1s;
	max_number_of_tries 3;
}

object fuse {
	name FUSEs_402-1375944;
	phases "ABN";
	from 403-181883;
	to Fuse_402-1375944;
	current_limit 1000 A;
	mean_replacement_time 360 ;
	phase_A_status GOOD;
	phase_B_status GOOD;
	phase_C_status GOOD;
	repair_dist_type NONE;
}

object fuse {
	name FUSEs_402-1375942;
	phases "ABCN";
	from 500-2822450;
	to Fuse_402-1375942;
	current_limit 1000 A;
	mean_replacement_time 360 ;
	phase_A_status GOOD;
	phase_B_status GOOD;
	phase_C_status GOOD;
	repair_dist_type NONE;
}

object fuse {
	name FUSEs_402-1375943;
	phases "ABCN";
	from 500-2822436;
	to Fuse_402-1375943;
	current_limit 1000 A;
	mean_replacement_time 360 ;
	phase_A_status GOOD;
	phase_B_status GOOD;
	phase_C_status GOOD;
	repair_dist_type NONE;
}

object fuse {
	name FUSEs_402-619382;
	phases "BN";
	from 500-933240;
	to Fuse_402-619382;
	current_limit 1000 A;
	mean_replacement_time 360 ;
	phase_A_status GOOD;
	phase_B_status GOOD;
	phase_C_status GOOD;
	repair_dist_type NONE;
}

object fuse {
	name FUSEs_402-458138;
	phases "ABCN";
	from 393-72996;
	to Fuse_402-458138;
	current_limit 1000 A;
	mean_replacement_time 360 ;
	phase_A_status GOOD;
	phase_B_status GOOD;
	phase_C_status GOOD;
	repair_dist_type NONE;
}

object fuse {
	name FUSEs_402-1056198;
	phases "ABCN";
	from 500-1889727;
	to Fuse_402-1056198;
	current_limit 1000 A;
	mean_replacement_time 360 ;
	phase_A_status GOOD;
	phase_B_status GOOD;
	phase_C_status GOOD;
	repair_dist_type NONE;
}

object fuse {
	name FUSEs_402-1492513;
	phases "BN";
	from 395-2147934;
	to Fuse_402-1492513;
	current_limit 1000 A;
	mean_replacement_time 360 ;
	phase_A_status GOOD;
	phase_B_status GOOD;
	phase_C_status GOOD;
	repair_dist_type NONE;
}

object fuse {
	name FUSEs_402-1397702;
	phases "AN";
	from 403-480159;
	to Fuse_402-1397702;
	current_limit 1000 A;
	mean_replacement_time 360 ;
	phase_A_status GOOD;
	phase_B_status GOOD;
	phase_C_status GOOD;
	repair_dist_type NONE;
}

object fuse {
	name FUSEs_402-1262950;
	phases "AN";
	from 500-643291;
	to Fuse_402-1262950;
	current_limit 1000 A;
	mean_replacement_time 360 ;
	phase_A_status GOOD;
	phase_B_status GOOD;
	phase_C_status GOOD;
	repair_dist_type NONE;
}

object fuse {
	name FUSEs_402-1390342;
	phases "ABCN";
	from 392-88054;
	to Fuse_402-1390342;
	current_limit 1000 A;
	mean_replacement_time 360 ;
	phase_A_status GOOD;
	phase_B_status GOOD;
	phase_C_status GOOD;
	repair_dist_type NONE;
}

object fuse {
	name FUSEs_402-158826;
	phases "AN";
	from 500-72683;
	to Fuse_402-158826;
	current_limit 1000 A;
	mean_replacement_time 360 ;
	phase_A_status GOOD;
	phase_B_status GOOD;
	phase_C_status GOOD;
	repair_dist_type NONE;
}

object fuse {
	name FUSEs_402-158825;
	phases "ABCN";
	from 500-72677;
	to Fuse_402-158825;
	current_limit 1000 A;
	mean_replacement_time 360 ;
	phase_A_status GOOD;
	phase_B_status GOOD;
	phase_C_status GOOD;
	repair_dist_type NONE;
}

object fuse {
	name FUSEs_402-1397704;
	phases "ABCN";
	from 402-158825;
	to Fuse_402-1397704;
	current_limit 1000 A;
	mean_replacement_time 360 ;
	phase_A_status GOOD;
	phase_B_status GOOD;
	phase_C_status GOOD;
	repair_dist_type NONE;
}

object fuse {
	name FUSEs_402-158808;
	phases "ABCN";
	from 500-83225;
	to Fuse_402-158808;
	current_limit 1000 A;
	mean_replacement_time 360 ;
	phase_A_status GOOD;
	phase_B_status GOOD;
	phase_C_status GOOD;
	repair_dist_type NONE;
}

object fuse {
	name FUSEs_402-158806;
	phases "BN";
	from 500-72676;
	to Fuse_402-158806;
	current_limit 1000 A;
	mean_replacement_time 360 ;
	phase_A_status GOOD;
	phase_B_status GOOD;
	phase_C_status GOOD;
	repair_dist_type NONE;
}

object fuse {
	name FUSEs_402-700342;
	phases "ABCN";
	from 500-1300669;
	to Fuse_402-700342;
	current_limit 1000 A;
	mean_replacement_time 360 ;
	phase_A_status GOOD;
	phase_B_status GOOD;
	phase_C_status GOOD;
	repair_dist_type NONE;
}

object fuse {
	name FUSEs_402-1339159;
	phases "ABCN";
	from 500-43521;
	to Fuse_402-1339159;
	current_limit 1000 A;
	mean_replacement_time 360 ;
	phase_A_status GOOD;
	phase_B_status GOOD;
	phase_C_status GOOD;
	repair_dist_type NONE;
}

object fuse {
	name FUSEs_402-1397705;
	phases "ABCN";
	from 500-72681;
	to Fuse_402-1397705;
	current_limit 1000 A;
	mean_replacement_time 360 ;
	phase_A_status GOOD;
	phase_B_status GOOD;
	phase_C_status GOOD;
	repair_dist_type NONE;
}

object fuse {
	name FUSEs_402-1397706;
	phases "ABCN";
	from 500-2854641;
	to Fuse_402-1397706;
	current_limit 1000 A;
	mean_replacement_time 360 ;
	phase_A_status GOOD;
	phase_B_status GOOD;
	phase_C_status GOOD;
	repair_dist_type NONE;
}

object fuse {
	name FUSEs_402-158821;
	phases "BN";
	from 500-43338;
	to Fuse_402-158821;
	current_limit 1000 A;
	mean_replacement_time 360 ;
	phase_A_status GOOD;
	phase_B_status GOOD;
	phase_C_status GOOD;
	repair_dist_type NONE;
}

object fuse {
	name FUSEs_402-158810;
	phases "ABCN";
	from 500-43341;
	to Fuse_402-158810;
	current_limit 1000 A;
	mean_replacement_time 360 ;
	phase_A_status GOOD;
	phase_B_status GOOD;
	phase_C_status GOOD;
	repair_dist_type NONE;
}

object fuse {
	name FUSEs_402-158814;
	phases "ABCN";
	from 500-43340;
	to Fuse_402-158814;
	current_limit 1000 A;
	mean_replacement_time 360 ;
	phase_A_status GOOD;
	phase_B_status GOOD;
	phase_C_status GOOD;
	repair_dist_type NONE;
}

object fuse {
	name FUSEs_402-167773;
	phases "ABCN";
	from 500-64034;
	to Fuse_402-167773;
	current_limit 1000 A;
	mean_replacement_time 360 ;
	phase_A_status GOOD;
	phase_B_status GOOD;
	phase_C_status GOOD;
	repair_dist_type NONE;
}

object fuse {
	name FUSEs_402-462222;
	phases "ABCN";
	from 500-642905;
	to Fuse_402-462222;
	current_limit 1000 A;
	mean_replacement_time 360 ;
	phase_A_status GOOD;
	phase_B_status GOOD;
	phase_C_status GOOD;
	repair_dist_type NONE;
}

object fuse {
	name FUSEs_402-463500;
	phases "ABCN";
	from 500-643290;
	to Fuse_402-463500;
	current_limit 1000 A;
	mean_replacement_time 360 ;
	phase_A_status GOOD;
	phase_B_status GOOD;
	phase_C_status GOOD;
	repair_dist_type NONE;
}

object fuse {
	name FUSEs_402-1369238;
	phases "ABCN";
	from 416-52180;
	to Fuse_402-1369238;
	current_limit 1000 A;
	mean_replacement_time 360 ;
	phase_A_status GOOD;
	phase_B_status GOOD;
	phase_C_status GOOD;
	repair_dist_type NONE;
}

object fuse {
	name Breaker_CASP13;
	phases "ABCN";
	from SW_CASP13;
	to CB_CASP13;
	current_limit 480 A;
	mean_replacement_time 3600;
}

object fuse {
	name Breaker_EB13;
	phases "ABCN";
	from ECSSB;
	to CB_EB13;
	current_limit 480 A;
	mean_replacement_time 3600;
}

object fuse {
	name Breaker_EB11;
	phases "ABCN";
	from ECSSB;
	to CB_EB11;
	current_limit 480 A;
	mean_replacement_time 3600;
}

object fuse {
	name Breaker_EA1;
	phases "ABCN";
	from ECSSA;
	to CB_EA1;
	current_limit 480 A;
	mean_replacement_time 3600;
}

object fuse {
	name Breaker_EA7;
	phases "ABCN";
	from ECSSA;
	to CB_EA7;
	current_limit 600 A;
	mean_replacement_time 3600;
}

object fuse {
	name Breaker_CASP24;
	phases "ABCN";
	from CASPB;
	to CB_CASP24;
	current_limit 1200 A;
	mean_replacement_time 3600;
}

object node {
	name 390-174458;
	phases ABCN;
	nominal_voltage 7970.00;
	voltage_A 7970.00+0d;
	voltage_B 7970.00-120.0d;
	voltage_C 7970.00+120.0d;
	bustype PQ;
}

object node {
	name 390-59548;
	phases ABCN;
	nominal_voltage 7970.00;
	voltage_A 7970.00+0d;
	voltage_B 7970.00-120.0d;
	voltage_C 7970.00+120.0d;
	bustype PQ;
}

object node {
	name 390-66586;
	phases ABCN;
	nominal_voltage 7970.00;
	voltage_A 7970.00+0d;
	voltage_B 7970.00-120.0d;
	voltage_C 7970.00+120.0d;
	bustype PQ;
}

object node {
	name 392-106295;
	phases ABC;
	nominal_voltage 2401.78;
	voltage_A 2401.78+0d;
	voltage_B 2401.78-120.0d;
	voltage_C 2401.78+120.0d;
	bustype PQ;
}

object node {
	name 392-106314;
	phases ABC;
	nominal_voltage 2401.78;
	voltage_A 2401.78+0d;
	voltage_B 2401.78-120.0d;
	voltage_C 2401.78+120.0d;
	bustype PQ;
}

object node {
	name 392-89656;
	phases ABCN;
	nominal_voltage 7970.00;
	voltage_A 7970.00+0d;
	voltage_B 7970.00-120.0d;
	voltage_C 7970.00+120.0d;
	bustype PQ;
}

object node {
	name 392-96374;
	phases ABCN;
	nominal_voltage 7970.00;
	voltage_A 7970.00+0d;
	voltage_B 7970.00-120.0d;
	voltage_C 7970.00+120.0d;
	bustype PQ;
}

object node {
	name 392-96694;
	phases ABCN;
	nominal_voltage 7970.00;
	voltage_A 7970.00+0d;
	voltage_B 7970.00-120.0d;
	voltage_C 7970.00+120.0d;
	bustype PQ;
}

object node {
	name 396-153620;
	phases ABCN;
	nominal_voltage 7970.00;
	voltage_A 7970.00+0d;
	voltage_B 7970.00-120.0d;
	voltage_C 7970.00+120.0d;
	bustype PQ;
}

object node {
	name 396-67859;
	phases ABCN;
	nominal_voltage 2401.78;
	voltage_A 2401.78+0d;
	voltage_B 2401.78-120.0d;
	voltage_C 2401.78+120.0d;
	bustype PQ;
}

object node {
	name 396-83540;
	phases ABCN;
	nominal_voltage 2401.78;
	voltage_A 2401.78+0d;
	voltage_B 2401.78-120.0d;
	voltage_C 2401.78+120.0d;
	bustype PQ;
}

object node {
	name 402-1375942;
	phases ABCN;
	nominal_voltage 7970.00;
	voltage_A 7970.00+0d;
	voltage_B 7970.00-120.0d;
	voltage_C 7970.00+120.0d;
	bustype PQ;
}

object node {
	name 402-1375943;
	phases ABCN;
	nominal_voltage 7970.00;
	voltage_A 7970.00+0d;
	voltage_B 7970.00-120.0d;
	voltage_C 7970.00+120.0d;
	bustype PQ;
}

object node {
	name 402-1375944;
	phases ABN;
	nominal_voltage 7970.00;
	voltage_A 7970.00+0d;
	voltage_B 7970.00-120.0d;
	bustype PQ;
}

object node {
	name 403-1231577;
	phases ABCN;
	nominal_voltage 7970.00;
	voltage_A 7970.00+0d;
	voltage_B 7970.00-120.0d;
	voltage_C 7970.00+120.0d;
	bustype PQ;
}

object node {
	name 403-180601;
	phases ABCN;
	nominal_voltage 7970.00;
	voltage_A 7970.00+0d;
	voltage_B 7970.00-120.0d;
	voltage_C 7970.00+120.0d;
	bustype PQ;
}

object node {
	name 403-180602;
	phases ABCN;
	nominal_voltage 7970.00;
	voltage_A 7970.00+0d;
	voltage_B 7970.00-120.0d;
	voltage_C 7970.00+120.0d;
	bustype PQ;
}

object node {
	name 403-181882;
	phases ABCN;
	nominal_voltage 7970.00;
	voltage_A 7970.00+0d;
	voltage_B 7970.00-120.0d;
	voltage_C 7970.00+120.0d;
	bustype PQ;
}

object node {
	name 403-181883;
	phases ABCN;
	nominal_voltage 7970.00;
	voltage_A 7970.00+0d;
	voltage_B 7970.00-120.0d;
	voltage_C 7970.00+120.0d;
	bustype PQ;
}

object node {
	name 403-247482;
	phases ABCN;
	nominal_voltage 7970.00;
	voltage_A 7970.00+0d;
	voltage_B 7970.00-120.0d;
	voltage_C 7970.00+120.0d;
	bustype PQ;
}

object node {
	name 403-469922;
	phases ABCN;
	nominal_voltage 7970.00;
	voltage_A 7970.00+0d;
	voltage_B 7970.00-120.0d;
	voltage_C 7970.00+120.0d;
	bustype PQ;
}

object node {
	name 403-469925;
	phases ABCN;
	nominal_voltage 7970.00;
	voltage_A 7970.00+0d;
	voltage_B 7970.00-120.0d;
	voltage_C 7970.00+120.0d;
	bustype PQ;
}

object node {
	name 403-470568;
	phases ABCN;
	nominal_voltage 7970.00;
	voltage_A 7970.00+0d;
	voltage_B 7970.00-120.0d;
	voltage_C 7970.00+120.0d;
	bustype PQ;
}

object node {
	name 403-474441;
	phases ABN;
	nominal_voltage 7970.00;
	voltage_A 7970.00+0d;
	voltage_B 7970.00-120.0d;
	bustype PQ;
}

object node {
	name 403-478233;
	phases ABCN;
	nominal_voltage 7970.00;
	voltage_A 7970.00+0d;
	voltage_B 7970.00-120.0d;
	voltage_C 7970.00+120.0d;
	bustype PQ;
}

object node {
	name 403-478234;
	phases ABCN;
	nominal_voltage 7970.00;
	voltage_A 7970.00+0d;
	voltage_B 7970.00-120.0d;
	voltage_C 7970.00+120.0d;
	bustype PQ;
}

object node {
	name 403-522083;
	phases ABCN;
	nominal_voltage 7970.00;
	voltage_A 7970.00+0d;
	voltage_B 7970.00-120.0d;
	voltage_C 7970.00+120.0d;
	bustype PQ;
}

object node {
	name 403-618763;
	phases ABCN;
	nominal_voltage 7970.00;
	voltage_A 7970.00+0d;
	voltage_B 7970.00-120.0d;
	voltage_C 7970.00+120.0d;
	bustype PQ;
}

object node {
	name 403-619051;
	phases ABCN;
	nominal_voltage 7970.00;
	voltage_A 7970.00+0d;
	voltage_B 7970.00-120.0d;
	voltage_C 7970.00+120.0d;
	bustype PQ;
}

object node {
	name 403-652330;
	phases BN;
	nominal_voltage 7970.00;
	voltage_B 7970.00-120.0d;
	bustype PQ;
}

object node {
	name 406-1262796;
	phases ABCN;
	nominal_voltage 2401.78;
	voltage_A 2401.78+0d;
	voltage_B 2401.78-120.0d;
	voltage_C 2401.78+120.0d;
	bustype PQ;
}

object node {
	name 409-401940;
	phases ABCN;
	nominal_voltage 2401.78;
	voltage_A 2401.78+0d;
	voltage_B 2401.78-120.0d;
	voltage_C 2401.78+120.0d;
	bustype PQ;
}

object node {
	name 416-74596;
	phases ABCN;
	nominal_voltage 7970.00;
	voltage_A 7970.00+0d;
	voltage_B 7970.00-120.0d;
	voltage_C 7970.00+120.0d;
	bustype PQ;
}

object node {
	name 500-1169093;
	phases BN;
	nominal_voltage 7970.00;
	voltage_B 7970.00-120.0d;
	bustype PQ;
}

object node {
	name 500-230271;
	phases AN;
	nominal_voltage 7970.00;
	voltage_A 7970.00+0d;
	bustype PQ;
}

object node {
	name 500-230308;
	phases ABCN;
	nominal_voltage 7970.00;
	voltage_A 7970.00+0d;
	voltage_B 7970.00-120.0d;
	voltage_C 7970.00+120.0d;
	bustype PQ;
}

object node {
	name 500-230397;
	phases AN;
	nominal_voltage 7970.00;
	voltage_A 7970.00+0d;
	bustype PQ;
}

object node {
	name 500-230426;
	phases AN;
	nominal_voltage 7970.00;
	voltage_A 7970.00+0d;
	bustype PQ;
}

object node {
	name 500-2822436;
	phases ABCN;
	nominal_voltage 7970.00;
	voltage_A 7970.00+0d;
	voltage_B 7970.00-120.0d;
	voltage_C 7970.00+120.0d;
	bustype PQ;
}

object node {
	name 500-2822450;
	phases ABCN;
	nominal_voltage 7970.00;
	voltage_A 7970.00+0d;
	voltage_B 7970.00-120.0d;
	voltage_C 7970.00+120.0d;
	bustype PQ;
}

object node {
	name 500-2963174;
	phases ABCN;
	nominal_voltage 7970.00;
	voltage_A 7970.00+0d;
	voltage_B 7970.00-120.0d;
	voltage_C 7970.00+120.0d;
	bustype PQ;
}

object node {
	name 500-2963177;
	phases ABCN;
	nominal_voltage 7970.00;
	voltage_A 7970.00+0d;
	voltage_B 7970.00-120.0d;
	voltage_C 7970.00+120.0d;
	bustype PQ;
}

object node {
	name 500-626092;
	phases ABCN;
	nominal_voltage 7970.00;
	voltage_A 7970.00+0d;
	voltage_B 7970.00-120.0d;
	voltage_C 7970.00+120.0d;
	bustype PQ;
}

object node {
	name 500-933235;
	phases ABCN;
	nominal_voltage 7970.00;
	voltage_A 7970.00+0d;
	voltage_B 7970.00-120.0d;
	voltage_C 7970.00+120.0d;
	bustype PQ;
}

object node {
	name Breaker_392-106295;
	phases ABC;
	nominal_voltage 2401.78;
	voltage_A 2401.78+0d;
	voltage_B 2401.78-120.0d;
	voltage_C 2401.78+120.0d;
	bustype PQ;
}

object node {
	name Breaker_392-96374;
	phases ABCN;
	nominal_voltage 7970.00;
	voltage_A 7970.00+0d;
	voltage_B 7970.00-120.0d;
	voltage_C 7970.00+120.0d;
	bustype PQ;
}

object node {
	name Breaker_392-96694;
	phases ABCN;
	nominal_voltage 7970.00;
	voltage_A 7970.00+0d;
	voltage_B 7970.00-120.0d;
	voltage_C 7970.00+120.0d;
	bustype PQ;
}

object node {
	name Breaker_416-74596;
	phases ABCN;
	nominal_voltage 7970.00;
	voltage_A 7970.00+0d;
	voltage_B 7970.00-120.0d;
	voltage_C 7970.00+120.0d;
	bustype PQ;
}

object node {
	name Fuse_402-1375942;
	phases ABCN;
	nominal_voltage 7970.00;
	voltage_A 7970.00+0d;
	voltage_B 7970.00-120.0d;
	voltage_C 7970.00+120.0d;
	bustype PQ;
}

object node {
	name Fuse_402-1375943;
	phases ABCN;
	nominal_voltage 7970.00;
	voltage_A 7970.00+0d;
	voltage_B 7970.00-120.0d;
	voltage_C 7970.00+120.0d;
	bustype PQ;
}

object node {
	name Fuse_402-1375944;
	phases ABN;
	nominal_voltage 7970.00;
	voltage_A 7970.00+0d;
	voltage_B 7970.00-120.0d;
	voltage_C 7970.00+120.0d;
	bustype PQ;
}

object node {
	name Reg_TUR115;
	phases ABCN;
	nominal_voltage 7970.00;
	voltage_A 7970.00+0d;
	voltage_B 7970.00-120.0d;
	voltage_C 7970.00+120.0d;
	bustype PQ;
}

object node {
	name SW_396-67859;
	phases ABCN;
	nominal_voltage 2401.78;
	voltage_A 2401.78+0d;
	voltage_B 2401.78-120.0d;
	voltage_C 2401.78+120.0d;
	bustype PQ;
}

object node {
	name SW_403-618763;
	phases ABCN;
	nominal_voltage 7970.00;
	voltage_A 7970.00+0d;
	voltage_B 7970.00-120.0d;
	voltage_C 7970.00+120.0d;
	bustype PQ;
}

object node {
	name SW_409-401940;
	phases ABCN;
	nominal_voltage 2401.78;
	voltage_A 2401.78+0d;
	voltage_B 2401.78-120.0d;
	voltage_C 2401.78+120.0d;
	bustype PQ;
}

object node {
	name SW_500-2963177;
	phases ABCN;
	nominal_voltage 7970.00;
	voltage_A 7970.00+0d;
	voltage_B 7970.00-120.0d;
	voltage_C 7970.00+120.0d;
	bustype PQ;
}

object node {
	name SW_500-626092;
	phases ABCN;
	nominal_voltage 7970.00;
	voltage_A 7970.00+0d;
	voltage_B 7970.00-120.0d;
	voltage_C 7970.00+120.0d;
	bustype PQ;
}

object node {
	name Xfmr_409-401940;
	phases ABCN;
	nominal_voltage 2401.78;
	voltage_A 2401.78+0d;
	voltage_B 2401.78-120.0d;
	bustype PQ;
}

object node {
	name 390-59546;
	phases ABCN;
	nominal_voltage 7970.00;
	voltage_A 7970.00+0d;
	voltage_B 7970.00-120.0d;
	voltage_C 7970.00+120.0d;
	bustype PQ;
}

object node {
	name 392-106294;
	phases ABC;
	nominal_voltage 2401.78;
	voltage_A 2401.78+0d;
	voltage_B 2401.78-120.0d;
	voltage_C 2401.78+120.0d;
	bustype PQ;
}

object node {
	name 392-89014;
	phases ABCN;
	nominal_voltage 7970.00;
	voltage_A 7970.00+0d;
	voltage_B 7970.00-120.0d;
	voltage_C 7970.00+120.0d;
	bustype PQ;
}

object node {
	name 392-89655;
	phases ABCN;
	nominal_voltage 7970.00;
	voltage_A 7970.00+0d;
	voltage_B 7970.00-120.0d;
	voltage_C 7970.00+120.0d;
	bustype PQ;
}

object node {
	name 396-67860;
	phases ABCN;
	nominal_voltage 2401.78;
	voltage_A 2401.78+0d;
	voltage_B 2401.78-120.0d;
	voltage_C 2401.78+120.0d;
	bustype PQ;
}

object node {
	name 402-619382;
	phases ABCN;
	nominal_voltage 2401.78;
	voltage_A 2401.78+0d;
	voltage_B 2401.78-120.0d;
	voltage_C 2401.78+120.0d;
	bustype PQ;
}

object node {
	name 403-1203449;
	phases ABCN;
	nominal_voltage 7970.00;
	voltage_A 7970.00+0d;
	voltage_B 7970.00-120.0d;
	voltage_C 7970.00+120.0d;
	bustype PQ;
}

object node {
	name 403-470566;
	phases ABCN;
	nominal_voltage 7970.00;
	voltage_A 7970.00+0d;
	voltage_B 7970.00-120.0d;
	voltage_C 7970.00+120.0d;
	bustype PQ;
}

object node {
	name 403-470567;
	phases ABCN;
	nominal_voltage 7970.00;
	voltage_A 7970.00+0d;
	voltage_B 7970.00-120.0d;
	voltage_C 7970.00+120.0d;
	bustype PQ;
}

object node {
	name 403-520825;
	phases ABCN;
	nominal_voltage 7970.00;
	voltage_A 7970.00+0d;
	voltage_B 7970.00-120.0d;
	voltage_C 7970.00+120.0d;
	bustype PQ;
}

object node {
	name 403-520826;
	phases ABCN;
	nominal_voltage 7970.00;
	voltage_A 7970.00+0d;
	voltage_B 7970.00-120.0d;
	voltage_C 7970.00+120.0d;
	bustype PQ;
}

object node {
	name 403-520827;
	phases ABCN;
	nominal_voltage 7970.00;
	voltage_A 7970.00+0d;
	voltage_B 7970.00-120.0d;
	voltage_C 7970.00+120.0d;
	bustype PQ;
}

object node {
	name 403-520828;
	phases ABCN;
	nominal_voltage 7970.00;
	voltage_A 7970.00+0d;
	voltage_B 7970.00-120.0d;
	voltage_C 7970.00+120.0d;
	bustype PQ;
}

object node {
	name 403-520830;
	phases ABCN;
	nominal_voltage 7970.00;
	voltage_A 7970.00+0d;
	voltage_B 7970.00-120.0d;
	voltage_C 7970.00+120.0d;
	bustype PQ;
}

object node {
	name 403-520831;
	phases ABCN;
	nominal_voltage 7970.00;
	voltage_A 7970.00+0d;
	voltage_B 7970.00-120.0d;
	voltage_C 7970.00+120.0d;
	bustype PQ;
}

object node {
	name 403-520833;
	phases ABCN;
	nominal_voltage 7970.00;
	voltage_A 7970.00+0d;
	voltage_B 7970.00-120.0d;
	voltage_C 7970.00+120.0d;
	bustype PQ;
}

object node {
	name 403-520834;
	phases ABCN;
	nominal_voltage 7970.00;
	voltage_A 7970.00+0d;
	voltage_B 7970.00-120.0d;
	voltage_C 7970.00+120.0d;
	bustype PQ;
}

object node {
	name 403-520836;
	phases ABCN;
	nominal_voltage 7970.00;
	voltage_A 7970.00+0d;
	voltage_B 7970.00-120.0d;
	voltage_C 7970.00+120.0d;
	bustype PQ;
}

object node {
	name 403-520837;
	phases ABCN;
	nominal_voltage 7970.00;
	voltage_A 7970.00+0d;
	voltage_B 7970.00-120.0d;
	voltage_C 7970.00+120.0d;
	bustype PQ;
}

object node {
	name 403-520838;
	phases ABCN;
	nominal_voltage 7970.00;
	voltage_A 7970.00+0d;
	voltage_B 7970.00-120.0d;
	voltage_C 7970.00+120.0d;
	bustype PQ;
}

object node {
	name 403-520839;
	phases ABCN;
	nominal_voltage 7970.00;
	voltage_A 7970.00+0d;
	voltage_B 7970.00-120.0d;
	voltage_C 7970.00+120.0d;
	bustype PQ;
}

object node {
	name 403-521113;
	phases ABCN;
	nominal_voltage 7970.00;
	voltage_A 7970.00+0d;
	voltage_B 7970.00-120.0d;
	voltage_C 7970.00+120.0d;
	bustype PQ;
}

object node {
	name 403-521114;
	phases ABCN;
	nominal_voltage 7970.00;
	voltage_A 7970.00+0d;
	voltage_B 7970.00-120.0d;
	voltage_C 7970.00+120.0d;
	bustype PQ;
}

object node {
	name 403-521116;
	phases ABCN;
	nominal_voltage 7970.00;
	voltage_A 7970.00+0d;
	voltage_B 7970.00-120.0d;
	voltage_C 7970.00+120.0d;
	bustype PQ;
}

object node {
	name 403-618762;
	phases ABCN;
	nominal_voltage 7970.00;
	voltage_A 7970.00+0d;
	voltage_B 7970.00-120.0d;
	voltage_C 7970.00+120.0d;
	bustype PQ;
}

object node {
	name 403-695209;
	phases ABCN;
	nominal_voltage 7970.00;
	voltage_A 7970.00+0d;
	voltage_B 7970.00-120.0d;
	voltage_C 7970.00+120.0d;
	bustype PQ;
}

object node {
	name 406-905990;
	phases ABCN;
	nominal_voltage 2401.78;
	voltage_A 2401.78+0d;
	voltage_B 2401.78-120.0d;
	voltage_C 2401.78+120.0d;
	bustype PQ;
}

object node {
	name 409-401941;
	phases ABCN;
	nominal_voltage 2401.78;
	voltage_A 2401.78+0d;
	voltage_B 2401.78-120.0d;
	voltage_C 2401.78+120.0d;
	bustype PQ;
}

object node {
	name 416-32980;
	phases ABCN;
	nominal_voltage 7970.00;
	voltage_A 7970.00+0d;
	voltage_B 7970.00-120.0d;
	voltage_C 7970.00+120.0d;
	bustype PQ;
}

object node {
	name 500-230227;
	phases ABCN;
	nominal_voltage 7970.00;
	voltage_A 7970.00+0d;
	voltage_B 7970.00-120.0d;
	voltage_C 7970.00+120.0d;
	bustype PQ;
}

object node {
	name 500-625939;
	phases ABCN;
	nominal_voltage 7970.00;
	voltage_A 7970.00+0d;
	voltage_B 7970.00-120.0d;
	voltage_C 7970.00+120.0d;
	bustype PQ;
}

object node {
	name 500-709718;
	phases ABCN;
	nominal_voltage 7970.00;
	voltage_A 7970.00+0d;
	voltage_B 7970.00-120.0d;
	voltage_C 7970.00+120.0d;
	bustype PQ;
}

object node {
	name 500-709719;
	phases ABCN;
	nominal_voltage 7970.00;
	voltage_A 7970.00+0d;
	voltage_B 7970.00-120.0d;
	voltage_C 7970.00+120.0d;
	bustype PQ;
}

object node {
	name 500-712882;
	phases ABCN;
	nominal_voltage 7970.00;
	voltage_A 7970.00+0d;
	voltage_B 7970.00-120.0d;
	voltage_C 7970.00+120.0d;
	bustype PQ;
}

object node {
	name 500-933236;
	phases ABCN;
	nominal_voltage 7970.00;
	voltage_A 7970.00+0d;
	voltage_B 7970.00-120.0d;
	voltage_C 7970.00+120.0d;
	bustype PQ;
}

object node {
	name 500-933238;
	phases AN;
	nominal_voltage 2401.78;
	voltage_A 2401.78+0d;
	bustype PQ;
}

object node {
	name 500-933240;
	phases BN;
	nominal_voltage 2401.78;
	voltage_B 2401.78-120.0d;
	bustype PQ;
}

object node {
	name 500-933242;
	phases CN;
	nominal_voltage 2401.78;
	voltage_C 2401.78+120.0d;
	bustype PQ;
}

object node {
	name Breaker_392-106294;
	phases ABC;
	nominal_voltage 2401.78;
	voltage_A 2401.78+0d;
	voltage_B 2401.78-120.0d;
	voltage_C 2401.78+120.0d;
	bustype PQ;
}

object node {
	name Breaker_392-106314;
	phases ABC;
	nominal_voltage 2401.78;
	voltage_A 2401.78+0d;
	voltage_B 2401.78-120.0d;
	voltage_C 2401.78+120.0d;
	bustype PQ;
}

object node {
	name Breaker_392-89014;
	phases ABCN;
	nominal_voltage 7970.00;
	voltage_A 7970.00+0d;
	voltage_B 7970.00-120.0d;
	voltage_C 7970.00+120.0d;
	bustype PQ;
}

object node {
	name Breaker_392-89655;
	phases ABCN;
	nominal_voltage 7970.00;
	voltage_A 7970.00+0d;
	voltage_B 7970.00-120.0d;
	voltage_C 7970.00+120.0d;
	bustype PQ;
}

object node {
	name Breaker_416-32980;
	phases ABCN;
	nominal_voltage 7970.00;
	voltage_A 7970.00+0d;
	voltage_B 7970.00-120.0d;
	voltage_C 7970.00+120.0d;
	bustype PQ;
}

object node {
	name Fuse_402-619382;
	phases BN;
	nominal_voltage 2401.78;
	voltage_A 2401.78+0d;
	voltage_B 2401.78-120.0d;
	voltage_C 2401.78+120.0d;
	bustype PQ;
}

object node {
	name Reg_SPU125;
	phases ABCN;
	nominal_voltage 7970.00;
	voltage_A 7970.00+0d;
	voltage_B 7970.00-120.0d;
	voltage_C 7970.00+120.0d;
	bustype PQ;
}

object node {
	name SW_403-618762;
	phases ABCN;
	nominal_voltage 7970.00;
	voltage_A 7970.00+0d;
	voltage_B 7970.00-120.0d;
	voltage_C 7970.00+120.0d;
	bustype PQ;
}

object node {
	name SW_409-401941;
	phases ABCN;
	nominal_voltage 2401.78;
	voltage_A 2401.78+0d;
	voltage_B 2401.78-120.0d;
	voltage_C 2401.78+120.0d;
	bustype PQ;
}

object node {
	name SW_500-933236;
	phases ABCN;
	nominal_voltage 7970.00;
	voltage_A 7970.00+0d;
	voltage_B 7970.00-120.0d;
	voltage_C 7970.00+120.0d;
	bustype PQ;
}

object node {
	name Xfmr_409-401941;
	phases ABCN;
	nominal_voltage 2401.78;
	voltage_A 2401.78+0d;
	voltage_B 2401.78-120.0d;
	voltage_C 2401.78+120.0d;
	bustype PQ;
}

object node {
	name 391-1731909;
	phases ABCN;
	nominal_voltage 7970.00;
	voltage_A 7970.00+0d;
	voltage_B 7970.00-120.0d;
	voltage_C 7970.00+120.0d;
	bustype PQ;
}

object node {
	name 391-559604;
	phases ABCN;
	nominal_voltage 7970.00;
	voltage_A 7970.00+0d;
	voltage_B 7970.00-120.0d;
	voltage_C 7970.00+120.0d;
	bustype PQ;
}

object node {
	name 391-758992;
	phases ABCN;
	nominal_voltage 7970.00;
	voltage_A 7970.00+0d;
	voltage_B 7970.00-120.0d;
	voltage_C 7970.00+120.0d;
	bustype PQ;
}

object node {
	name 393-72996;
	phases ABCN;
	nominal_voltage 7970.00;
	voltage_A 7970.00+0d;
	voltage_B 7970.00-120.0d;
	voltage_C 7970.00+120.0d;
	bustype PQ;
}

object node {
	name 395-1373643;
	phases AN;
	nominal_voltage 7970.00;
	voltage_A 7970.00+0d;
	bustype PQ;
}

object node {
	name 395-1373661;
	phases BN;
	nominal_voltage 7970.00;
	voltage_B 7970.00-120.0d;
	bustype PQ;
}

object node {
	name 395-1373663;
	phases CN;
	nominal_voltage 7970.00;
	voltage_C 7970.00+120.0d;
	bustype PQ;
}

object node {